<?xml version="1.0" encoding="UTF-8" standalone="yes"?>
<template encoding-version="1.3">
    <description></description>
    <groupId>be851de8-0187-1000-c1f0-af246308252a</groupId>
    <name>final_flow</name>
    <snippet>
        <processGroups>
            <id>11d0b442-2219-3d40-0000-000000000000</id>
            <parentGroupId>25a6093c-0d03-39cd-0000-000000000000</parentGroupId>
            <position>
                <x>439.0</x>
                <y>0.0</y>
            </position>
            <versionedComponentId>11d0b442-2219-3d40-890d-ce393d04b1b4</versionedComponentId>
            <comments></comments>
            <contents>
                <connections>
                    <id>00604940-408f-3bd2-0000-000000000000</id>
                    <parentGroupId>11d0b442-2219-3d40-0000-000000000000</parentGroupId>
                    <versionedComponentId>00604940-408f-3bd2-9f73-c058cfd1dabc</versionedComponentId>
                    <backPressureDataSizeThreshold>1 GB</backPressureDataSizeThreshold>
                    <backPressureObjectThreshold>100000</backPressureObjectThreshold>
                    <bends>
                        <x>152.0</x>
                        <y>592.0</y>
                    </bends>
                    <destination>
                        <groupId>11d0b442-2219-3d40-0000-000000000000</groupId>
                        <id>353687d3-0c52-3932-0000-000000000000</id>
                        <type>PROCESSOR</type>
                        <versionedComponentId>353687d3-0c52-3932-bc3e-dec0b9cd3317</versionedComponentId>
                    </destination>
                    <flowFileExpiration>0 sec</flowFileExpiration>
                    <labelIndex>1</labelIndex>
                    <loadBalanceCompression>DO_NOT_COMPRESS</loadBalanceCompression>
                    <loadBalancePartitionAttribute></loadBalancePartitionAttribute>
                    <loadBalanceStatus>LOAD_BALANCE_NOT_CONFIGURED</loadBalanceStatus>
                    <loadBalanceStrategy>DO_NOT_LOAD_BALANCE</loadBalanceStrategy>
                    <name></name>
                    <selectedRelationships>success</selectedRelationships>
                    <source>
                        <groupId>11d0b442-2219-3d40-0000-000000000000</groupId>
                        <id>ec512d7e-5641-3a52-0000-000000000000</id>
                        <type>PROCESSOR</type>
                        <versionedComponentId>ec512d7e-5641-3a52-81de-fb4c863e7cdf</versionedComponentId>
                    </source>
                    <zIndex>0</zIndex>
                </connections>
                <connections>
                    <id>18a77518-ec42-3944-0000-000000000000</id>
                    <parentGroupId>11d0b442-2219-3d40-0000-000000000000</parentGroupId>
                    <versionedComponentId>18a77518-ec42-3944-9a1c-b5941c22856b</versionedComponentId>
                    <backPressureDataSizeThreshold>1 GB</backPressureDataSizeThreshold>
                    <backPressureObjectThreshold>100000</backPressureObjectThreshold>
                    <bends>
                        <x>642.4127324577776</x>
                        <y>402.47998871925654</y>
                    </bends>
                    <destination>
                        <groupId>11d0b442-2219-3d40-0000-000000000000</groupId>
                        <id>ec512d7e-5641-3a52-0000-000000000000</id>
                        <type>PROCESSOR</type>
                        <versionedComponentId>ec512d7e-5641-3a52-81de-fb4c863e7cdf</versionedComponentId>
                    </destination>
                    <flowFileExpiration>0 sec</flowFileExpiration>
                    <labelIndex>1</labelIndex>
                    <loadBalanceCompression>DO_NOT_COMPRESS</loadBalanceCompression>
                    <loadBalancePartitionAttribute></loadBalancePartitionAttribute>
                    <loadBalanceStatus>LOAD_BALANCE_NOT_CONFIGURED</loadBalanceStatus>
                    <loadBalanceStrategy>DO_NOT_LOAD_BALANCE</loadBalanceStrategy>
                    <name></name>
                    <selectedRelationships>success</selectedRelationships>
                    <source>
                        <groupId>11d0b442-2219-3d40-0000-000000000000</groupId>
                        <id>664f8a5b-7cb5-3c0d-0000-000000000000</id>
                        <type>PROCESSOR</type>
                        <versionedComponentId>664f8a5b-7cb5-3c0d-ac5d-94e6dccfd6dd</versionedComponentId>
                    </source>
                    <zIndex>0</zIndex>
                </connections>
                <connections>
                    <id>2a07bbe4-23a9-3b6a-0000-000000000000</id>
                    <parentGroupId>11d0b442-2219-3d40-0000-000000000000</parentGroupId>
                    <versionedComponentId>2a07bbe4-23a9-3b6a-ba20-7628f3af5a53</versionedComponentId>
                    <backPressureDataSizeThreshold>1 GB</backPressureDataSizeThreshold>
                    <backPressureObjectThreshold>100000</backPressureObjectThreshold>
                    <bends>
                        <x>1018.4127324577776</x>
                        <y>210.47998871925657</y>
                    </bends>
                    <destination>
                        <groupId>11d0b442-2219-3d40-0000-000000000000</groupId>
                        <id>9a582921-0556-31e8-0000-000000000000</id>
                        <type>PROCESSOR</type>
                        <versionedComponentId>9a582921-0556-31e8-90e5-b28529a38701</versionedComponentId>
                    </destination>
                    <flowFileExpiration>0 sec</flowFileExpiration>
                    <labelIndex>1</labelIndex>
                    <loadBalanceCompression>DO_NOT_COMPRESS</loadBalanceCompression>
                    <loadBalancePartitionAttribute></loadBalancePartitionAttribute>
                    <loadBalanceStatus>LOAD_BALANCE_NOT_CONFIGURED</loadBalanceStatus>
                    <loadBalanceStrategy>DO_NOT_LOAD_BALANCE</loadBalanceStrategy>
                    <name></name>
                    <selectedRelationships>splits</selectedRelationships>
                    <source>
                        <groupId>11d0b442-2219-3d40-0000-000000000000</groupId>
                        <id>9d2c86cb-7d1a-3526-0000-000000000000</id>
                        <type>PROCESSOR</type>
                        <versionedComponentId>9d2c86cb-7d1a-3526-96e3-f93580e48d86</versionedComponentId>
                    </source>
                    <zIndex>0</zIndex>
                </connections>
                <connections>
                    <id>2b3acb6e-71c8-3624-0000-000000000000</id>
                    <parentGroupId>11d0b442-2219-3d40-0000-000000000000</parentGroupId>
                    <versionedComponentId>2b3acb6e-71c8-3624-9f4d-482ceaed4fe2</versionedComponentId>
                    <backPressureDataSizeThreshold>1 GB</backPressureDataSizeThreshold>
                    <backPressureObjectThreshold>100000</backPressureObjectThreshold>
                    <bends>
                        <x>1514.4127324577776</x>
                        <y>402.47998871925654</y>
                    </bends>
                    <destination>
                        <groupId>11d0b442-2219-3d40-0000-000000000000</groupId>
                        <id>09cc8013-f40b-3100-0000-000000000000</id>
                        <type>PROCESSOR</type>
                        <versionedComponentId>09cc8013-f40b-3100-b81b-8d3251008882</versionedComponentId>
                    </destination>
                    <flowFileExpiration>0 sec</flowFileExpiration>
                    <labelIndex>1</labelIndex>
                    <loadBalanceCompression>DO_NOT_COMPRESS</loadBalanceCompression>
                    <loadBalancePartitionAttribute></loadBalancePartitionAttribute>
                    <loadBalanceStatus>LOAD_BALANCE_NOT_CONFIGURED</loadBalanceStatus>
                    <loadBalanceStrategy>DO_NOT_LOAD_BALANCE</loadBalanceStrategy>
                    <name></name>
                    <selectedRelationships>unmatched</selectedRelationships>
                    <source>
                        <groupId>11d0b442-2219-3d40-0000-000000000000</groupId>
                        <id>9a582921-0556-31e8-0000-000000000000</id>
                        <type>PROCESSOR</type>
                        <versionedComponentId>9a582921-0556-31e8-90e5-b28529a38701</versionedComponentId>
                    </source>
                    <zIndex>0</zIndex>
                </connections>
                <connections>
                    <id>454ff6ef-dcc5-3a03-0000-000000000000</id>
                    <parentGroupId>11d0b442-2219-3d40-0000-000000000000</parentGroupId>
                    <versionedComponentId>454ff6ef-dcc5-3a03-85ea-f607eb5dfcdf</versionedComponentId>
                    <backPressureDataSizeThreshold>1 GB</backPressureDataSizeThreshold>
                    <backPressureObjectThreshold>100000</backPressureObjectThreshold>
                    <bends>
                        <x>1018.4127324577776</x>
                        <y>402.47998871925654</y>
                    </bends>
                    <destination>
                        <groupId>11d0b442-2219-3d40-0000-000000000000</groupId>
                        <id>664f8a5b-7cb5-3c0d-0000-000000000000</id>
                        <type>PROCESSOR</type>
                        <versionedComponentId>664f8a5b-7cb5-3c0d-ac5d-94e6dccfd6dd</versionedComponentId>
                    </destination>
                    <flowFileExpiration>0 sec</flowFileExpiration>
                    <labelIndex>1</labelIndex>
                    <loadBalanceCompression>DO_NOT_COMPRESS</loadBalanceCompression>
                    <loadBalancePartitionAttribute></loadBalancePartitionAttribute>
                    <loadBalanceStatus>LOAD_BALANCE_NOT_CONFIGURED</loadBalanceStatus>
                    <loadBalanceStrategy>DO_NOT_LOAD_BALANCE</loadBalanceStrategy>
                    <name></name>
                    <selectedRelationships>matched</selectedRelationships>
                    <source>
                        <groupId>11d0b442-2219-3d40-0000-000000000000</groupId>
                        <id>09cc8013-f40b-3100-0000-000000000000</id>
                        <type>PROCESSOR</type>
                        <versionedComponentId>09cc8013-f40b-3100-b81b-8d3251008882</versionedComponentId>
                    </source>
                    <zIndex>0</zIndex>
                </connections>
                <connections>
                    <id>714b4611-48f3-3810-0000-000000000000</id>
                    <parentGroupId>11d0b442-2219-3d40-0000-000000000000</parentGroupId>
                    <versionedComponentId>714b4611-48f3-3810-899b-7a86b5090849</versionedComponentId>
                    <backPressureDataSizeThreshold>1 GB</backPressureDataSizeThreshold>
                    <backPressureObjectThreshold>1000000</backPressureObjectThreshold>
                    <destination>
                        <groupId>11d0b442-2219-3d40-0000-000000000000</groupId>
                        <id>66e6669d-bdab-3b9a-0000-000000000000</id>
                        <type>FUNNEL</type>
                        <versionedComponentId>66e6669d-bdab-3b9a-993f-91e575b3830d</versionedComponentId>
                    </destination>
                    <flowFileExpiration>0 sec</flowFileExpiration>
                    <labelIndex>1</labelIndex>
                    <loadBalanceCompression>DO_NOT_COMPRESS</loadBalanceCompression>
                    <loadBalancePartitionAttribute></loadBalancePartitionAttribute>
                    <loadBalanceStatus>LOAD_BALANCE_NOT_CONFIGURED</loadBalanceStatus>
                    <loadBalanceStrategy>DO_NOT_LOAD_BALANCE</loadBalanceStrategy>
                    <name></name>
                    <selectedRelationships>success</selectedRelationships>
                    <source>
                        <groupId>11d0b442-2219-3d40-0000-000000000000</groupId>
                        <id>6adaa56b-a30d-3cd1-0000-000000000000</id>
                        <type>PROCESSOR</type>
                        <versionedComponentId>6adaa56b-a30d-3cd1-81a7-a3bbee09d0ae</versionedComponentId>
                    </source>
                    <zIndex>0</zIndex>
                </connections>
                <connections>
                    <id>71b18db8-76cd-3a27-0000-000000000000</id>
                    <parentGroupId>11d0b442-2219-3d40-0000-000000000000</parentGroupId>
                    <versionedComponentId>71b18db8-76cd-3a27-b6ce-d2cee1005e50</versionedComponentId>
                    <backPressureDataSizeThreshold>1 GB</backPressureDataSizeThreshold>
                    <backPressureObjectThreshold>100000</backPressureObjectThreshold>
                    <bends>
                        <x>640.0</x>
                        <y>600.0</y>
                    </bends>
                    <destination>
                        <groupId>11d0b442-2219-3d40-0000-000000000000</groupId>
                        <id>6adaa56b-a30d-3cd1-0000-000000000000</id>
                        <type>PROCESSOR</type>
                        <versionedComponentId>6adaa56b-a30d-3cd1-81a7-a3bbee09d0ae</versionedComponentId>
                    </destination>
                    <flowFileExpiration>0 sec</flowFileExpiration>
                    <labelIndex>1</labelIndex>
                    <loadBalanceCompression>DO_NOT_COMPRESS</loadBalanceCompression>
                    <loadBalancePartitionAttribute></loadBalancePartitionAttribute>
                    <loadBalanceStatus>LOAD_BALANCE_NOT_CONFIGURED</loadBalanceStatus>
                    <loadBalanceStrategy>DO_NOT_LOAD_BALANCE</loadBalanceStrategy>
                    <name></name>
                    <selectedRelationships>success</selectedRelationships>
                    <source>
                        <groupId>11d0b442-2219-3d40-0000-000000000000</groupId>
                        <id>353687d3-0c52-3932-0000-000000000000</id>
                        <type>PROCESSOR</type>
                        <versionedComponentId>353687d3-0c52-3932-bc3e-dec0b9cd3317</versionedComponentId>
                    </source>
                    <zIndex>0</zIndex>
                </connections>
                <connections>
                    <id>81cc9d49-767d-32a3-0000-000000000000</id>
                    <parentGroupId>11d0b442-2219-3d40-0000-000000000000</parentGroupId>
                    <versionedComponentId>81cc9d49-767d-32a3-ab07-b41280339c79</versionedComponentId>
                    <backPressureDataSizeThreshold>1 GB</backPressureDataSizeThreshold>
                    <backPressureObjectThreshold>10000</backPressureObjectThreshold>
                    <destination>
                        <groupId>11d0b442-2219-3d40-0000-000000000000</groupId>
                        <id>b57f3767-d9fa-3e6e-0000-000000000000</id>
                        <type>FUNNEL</type>
                        <versionedComponentId>b57f3767-d9fa-3e6e-9fe7-6edd609dbae8</versionedComponentId>
                    </destination>
                    <flowFileExpiration>0 sec</flowFileExpiration>
                    <labelIndex>1</labelIndex>
                    <loadBalanceCompression>DO_NOT_COMPRESS</loadBalanceCompression>
                    <loadBalancePartitionAttribute></loadBalancePartitionAttribute>
                    <loadBalanceStatus>LOAD_BALANCE_NOT_CONFIGURED</loadBalanceStatus>
                    <loadBalanceStrategy>DO_NOT_LOAD_BALANCE</loadBalanceStrategy>
                    <name></name>
                    <selectedRelationships>failure</selectedRelationships>
                    <source>
                        <groupId>11d0b442-2219-3d40-0000-000000000000</groupId>
                        <id>6adaa56b-a30d-3cd1-0000-000000000000</id>
                        <type>PROCESSOR</type>
                        <versionedComponentId>6adaa56b-a30d-3cd1-81a7-a3bbee09d0ae</versionedComponentId>
                    </source>
                    <zIndex>0</zIndex>
                </connections>
                <connections>
                    <id>aa315233-5302-3fcd-0000-000000000000</id>
                    <parentGroupId>11d0b442-2219-3d40-0000-000000000000</parentGroupId>
                    <versionedComponentId>aa315233-5302-3fcd-8743-fe4d16585ec8</versionedComponentId>
                    <backPressureDataSizeThreshold>1 GB</backPressureDataSizeThreshold>
                    <backPressureObjectThreshold>10000</backPressureObjectThreshold>
                    <destination>
                        <groupId>11d0b442-2219-3d40-0000-000000000000</groupId>
                        <id>0b1dcf9e-ad72-3429-0000-000000000000</id>
                        <type>FUNNEL</type>
                        <versionedComponentId>0b1dcf9e-ad72-3429-89b1-c2be0b5136e7</versionedComponentId>
                    </destination>
                    <flowFileExpiration>0 sec</flowFileExpiration>
                    <labelIndex>1</labelIndex>
                    <loadBalanceCompression>DO_NOT_COMPRESS</loadBalanceCompression>
                    <loadBalancePartitionAttribute></loadBalancePartitionAttribute>
                    <loadBalanceStatus>LOAD_BALANCE_NOT_CONFIGURED</loadBalanceStatus>
                    <loadBalanceStrategy>DO_NOT_LOAD_BALANCE</loadBalanceStrategy>
                    <name></name>
                    <selectedRelationships>header</selectedRelationships>
                    <source>
                        <groupId>11d0b442-2219-3d40-0000-000000000000</groupId>
                        <id>9a582921-0556-31e8-0000-000000000000</id>
                        <type>PROCESSOR</type>
                        <versionedComponentId>9a582921-0556-31e8-90e5-b28529a38701</versionedComponentId>
                    </source>
                    <zIndex>0</zIndex>
                </connections>
                <connections>
                    <id>d2ca91f4-7021-3fcf-0000-000000000000</id>
                    <parentGroupId>11d0b442-2219-3d40-0000-000000000000</parentGroupId>
                    <versionedComponentId>d2ca91f4-7021-3fcf-9171-9e8bf3f4dc19</versionedComponentId>
                    <backPressureDataSizeThreshold>1 GB</backPressureDataSizeThreshold>
                    <backPressureObjectThreshold>10000</backPressureObjectThreshold>
                    <bends>
                        <x>658.4127324577776</x>
                        <y>207.47998871925657</y>
                    </bends>
                    <destination>
                        <groupId>11d0b442-2219-3d40-0000-000000000000</groupId>
                        <id>9d2c86cb-7d1a-3526-0000-000000000000</id>
                        <type>PROCESSOR</type>
                        <versionedComponentId>9d2c86cb-7d1a-3526-96e3-f93580e48d86</versionedComponentId>
                    </destination>
                    <flowFileExpiration>0 sec</flowFileExpiration>
                    <labelIndex>1</labelIndex>
                    <loadBalanceCompression>DO_NOT_COMPRESS</loadBalanceCompression>
                    <loadBalancePartitionAttribute></loadBalancePartitionAttribute>
                    <loadBalanceStatus>LOAD_BALANCE_NOT_CONFIGURED</loadBalanceStatus>
                    <loadBalanceStrategy>DO_NOT_LOAD_BALANCE</loadBalanceStrategy>
                    <name></name>
                    <selectedRelationships>Response</selectedRelationships>
                    <source>
                        <groupId>11d0b442-2219-3d40-0000-000000000000</groupId>
                        <id>2353c0c8-cda4-37f7-0000-000000000000</id>
                        <type>PROCESSOR</type>
                        <versionedComponentId>2353c0c8-cda4-37f7-81b8-013f08151740</versionedComponentId>
                    </source>
                    <zIndex>0</zIndex>
                </connections>
                <controllerServices>
                    <id>10da4b58-5449-30bf-0000-000000000000</id>
                    <parentGroupId>11d0b442-2219-3d40-0000-000000000000</parentGroupId>
                    <versionedComponentId>10da4b58-5449-30bf-9218-9a6162ec8d64</versionedComponentId>
                    <bulletinLevel>WARN</bulletinLevel>
                    <bundle>
                        <artifact>nifi-dbcp-service-nar</artifact>
                        <group>org.apache.nifi</group>
                        <version>1.17.0</version>
                    </bundle>
                    <comments></comments>
                    <descriptors>
                        <entry>
                            <key>Database Connection URL</key>
                            <value>
<name>Database Connection URL</name>
                            </value>
                        </entry>
                        <entry>
                            <key>Database Driver Class Name</key>
                            <value>
<name>Database Driver Class Name</name>
                            </value>
                        </entry>
                        <entry>
                            <key>database-driver-locations</key>
                            <value>
<name>database-driver-locations</name>
                            </value>
                        </entry>
                        <entry>
                            <key>kerberos-user-service</key>
                            <value>
<identifiesControllerService>org.apache.nifi.kerberos.KerberosUserService</identifiesControllerService>
<name>kerberos-user-service</name>
                            </value>
                        </entry>
                        <entry>
                            <key>kerberos-credentials-service</key>
                            <value>
<identifiesControllerService>org.apache.nifi.kerberos.KerberosCredentialsService</identifiesControllerService>
<name>kerberos-credentials-service</name>
                            </value>
                        </entry>
                        <entry>
                            <key>kerberos-principal</key>
                            <value>
<name>kerberos-principal</name>
                            </value>
                        </entry>
                        <entry>
                            <key>kerberos-password</key>
                            <value>
<name>kerberos-password</name>
                            </value>
                        </entry>
                        <entry>
                            <key>Database User</key>
                            <value>
<name>Database User</name>
                            </value>
                        </entry>
                        <entry>
                            <key>Password</key>
                            <value>
<name>Password</name>
                            </value>
                        </entry>
                        <entry>
                            <key>Max Wait Time</key>
                            <value>
<name>Max Wait Time</name>
                            </value>
                        </entry>
                        <entry>
                            <key>Max Total Connections</key>
                            <value>
<name>Max Total Connections</name>
                            </value>
                        </entry>
                        <entry>
                            <key>Validation-query</key>
                            <value>
<name>Validation-query</name>
                            </value>
                        </entry>
                        <entry>
                            <key>dbcp-min-idle-conns</key>
                            <value>
<name>dbcp-min-idle-conns</name>
                            </value>
                        </entry>
                        <entry>
                            <key>dbcp-max-idle-conns</key>
                            <value>
<name>dbcp-max-idle-conns</name>
                            </value>
                        </entry>
                        <entry>
                            <key>dbcp-max-conn-lifetime</key>
                            <value>
<name>dbcp-max-conn-lifetime</name>
                            </value>
                        </entry>
                        <entry>
                            <key>dbcp-time-between-eviction-runs</key>
                            <value>
<name>dbcp-time-between-eviction-runs</name>
                            </value>
                        </entry>
                        <entry>
                            <key>dbcp-min-evictable-idle-time</key>
                            <value>
<name>dbcp-min-evictable-idle-time</name>
                            </value>
                        </entry>
                        <entry>
                            <key>dbcp-soft-min-evictable-idle-time</key>
                            <value>
<name>dbcp-soft-min-evictable-idle-time</name>
                            </value>
                        </entry>
                    </descriptors>
                    <name>MySqlDb</name>
                    <persistsState>false</persistsState>
                    <properties>
                        <entry>
                            <key>Database Connection URL</key>
                            <value>jdbc:mysql://scc413-mysqldb:3306/us_census</value>
                        </entry>
                        <entry>
                            <key>Database Driver Class Name</key>
                            <value>com.mysql.jdbc.Driver</value>
                        </entry>
                        <entry>
                            <key>database-driver-locations</key>
                            <value>/home/nifi/mysql-connector-j-8.0.32.jar</value>
                        </entry>
                        <entry>
                            <key>kerberos-user-service</key>
                        </entry>
                        <entry>
                            <key>kerberos-credentials-service</key>
                        </entry>
                        <entry>
                            <key>kerberos-principal</key>
                        </entry>
                        <entry>
                            <key>kerberos-password</key>
                        </entry>
                        <entry>
                            <key>Database User</key>
                            <value>root</value>
                        </entry>
                        <entry>
                            <key>Password</key>
                        </entry>
                        <entry>
                            <key>Max Wait Time</key>
                            <value>500 millis</value>
                        </entry>
                        <entry>
                            <key>Max Total Connections</key>
                            <value>8</value>
                        </entry>
                        <entry>
                            <key>Validation-query</key>
                        </entry>
                        <entry>
                            <key>dbcp-min-idle-conns</key>
                            <value>0</value>
                        </entry>
                        <entry>
                            <key>dbcp-max-idle-conns</key>
                            <value>8</value>
                        </entry>
                        <entry>
                            <key>dbcp-max-conn-lifetime</key>
                            <value>-1</value>
                        </entry>
                        <entry>
                            <key>dbcp-time-between-eviction-runs</key>
                            <value>-1</value>
                        </entry>
                        <entry>
                            <key>dbcp-min-evictable-idle-time</key>
                            <value>30 mins</value>
                        </entry>
                        <entry>
                            <key>dbcp-soft-min-evictable-idle-time</key>
                            <value>-1</value>
                        </entry>
                    </properties>
                    <state>ENABLED</state>
                    <type>org.apache.nifi.dbcp.DBCPConnectionPool</type>
                </controllerServices>
                <controllerServices>
                    <id>25d232b6-f7a7-3b9f-0000-000000000000</id>
                    <parentGroupId>11d0b442-2219-3d40-0000-000000000000</parentGroupId>
                    <versionedComponentId>25d232b6-f7a7-3b9f-9762-b466d4b268c6</versionedComponentId>
                    <bulletinLevel>WARN</bulletinLevel>
                    <bundle>
                        <artifact>nifi-record-serialization-services-nar</artifact>
                        <group>org.apache.nifi</group>
                        <version>1.17.0</version>
                    </bundle>
                    <comments></comments>
                    <descriptors>
                        <entry>
                            <key>schema-access-strategy</key>
                            <value>
<name>schema-access-strategy</name>
                            </value>
                        </entry>
                        <entry>
                            <key>schema-registry</key>
                            <value>
<dependencies>
    <dependentValues>confluent-encoded</dependentValues>
    <dependentValues>schema-name</dependentValues>
    <dependentValues>hwx-schema-ref-attributes</dependentValues>
    <dependentValues>hwx-content-encoded-schema</dependentValues>
    <propertyName>schema-access-strategy</propertyName>
</dependencies>
<identifiesControllerService>org.apache.nifi.schemaregistry.services.SchemaRegistry</identifiesControllerService>
<name>schema-registry</name>
                            </value>
                        </entry>
                        <entry>
                            <key>schema-name</key>
                            <value>